<routes>
	<vType id="audi" accel="0.8" decel="4.5" sigma="0.5" length="5" maxSpeed="90"/>
	<flow id="type1" color="1,1,0" begin="0" end="720000" type="audi" vehsPerHour="600" departLane="random" departSpeed = "40.0">
		<route edges="1to2"/>
	</flow>
</routes>
