<routes>
	<vType id="type1" accel="0.8" decel="4.5" sigma="0.5" length="5" maxSpeed="60"/>
	
<vehicle id="0" type="type1" depart="0" color="1,0,0" departPos = "0" route="circuit" departLane="random" />
<vehicle id="1" type="type1" depart="1" color="1,0,0" departPos = "0" route="connector1" departLane="random" />
<vehicle id="2" type="type1" depart="2" color="1,0,0" departPos = "20" route="circuit" departLane="random" />
<vehicle id="3" type="type1" depart="3" color="1,0,0" departPos = "20" route="connector1" departLane="random" />
<vehicle id="4" type="type1" depart="4" color="1,0,0" departPos = "40" route="circuit" departLane="random" />
<vehicle id="5" type="type1" depart="5" color="1,0,0" departPos = "40" route="connector1" departLane="random" />
<vehicle id="6" type="type1" depart="6" color="1,0,0" departPos = "60" route="circuit" departLane="random" />
<vehicle id="7" type="type1" depart="7" color="1,0,0" departPos = "60" route="connector1" departLane="random" />
<vehicle id="8" type="type1" depart="8" color="1,0,0" departPos = "80" route="circuit" departLane="random" />
<vehicle id="9" type="type1" depart="9" color="1,0,0" departPos = "80" route="connector1" departLane="random" />
<vehicle id="10" type="type1" depart="10" color="1,0,0" departPos = "100" route="circuit" departLane="random" />
<vehicle id="11" type="type1" depart="11" color="1,0,0" departPos = "100" route="connector1" departLane="random" />
<vehicle id="12" type="type1" depart="12" color="1,0,0" departPos = "120" route="circuit" departLane="random" />
<vehicle id="13" type="type1" depart="13" color="1,0,0" departPos = "120" route="connector1" departLane="random" />
<vehicle id="14" type="type1" depart="14" color="1,0,0" departPos = "140" route="circuit" departLane="random" />
<vehicle id="15" type="type1" depart="15" color="1,0,0" departPos = "140" route="connector1" departLane="random" />
<vehicle id="16" type="type1" depart="16" color="1,0,0" departPos = "160" route="circuit" departLane="random" />
<vehicle id="17" type="type1" depart="17" color="1,0,0" departPos = "160" route="connector1" departLane="random" />
<vehicle id="18" type="type1" depart="18" color="1,0,0" departPos = "180" route="circuit" departLane="random" />
<vehicle id="19" type="type1" depart="19" color="1,0,0" departPos = "180" route="connector1" departLane="random" />
<vehicle id="20" type="type1" depart="20" color="1,0,0" departPos = "200" route="circuit" departLane="random" />
<vehicle id="21" type="type1" depart="21" color="1,0,0" departPos = "200" route="connector1" departLane="random" />
<vehicle id="22" type="type1" depart="22" color="1,0,0" departPos = "220" route="circuit" departLane="random" />
<vehicle id="23" type="type1" depart="23" color="1,0,0" departPos = "220" route="connector1" departLane="random" />
<vehicle id="24" type="type1" depart="24" color="1,0,0" departPos = "240" route="circuit" departLane="random" />
<vehicle id="25" type="type1" depart="25" color="1,0,0" departPos = "240" route="connector1" departLane="random" />
<vehicle id="26" type="type1" depart="26" color="1,0,0" departPos = "260" route="circuit" departLane="random" />
<vehicle id="27" type="type1" depart="27" color="1,0,0" departPos = "260" route="connector1" departLane="random" />
<vehicle id="28" type="type1" depart="28" color="1,0,0" departPos = "280" route="circuit" departLane="random" />
<vehicle id="29" type="type1" depart="29" color="1,0,0" departPos = "280" route="connector1" departLane="random" />
<vehicle id="30" type="type1" depart="30" color="1,0,0" departPos = "300" route="circuit" departLane="random" />
<vehicle id="31" type="type1" depart="31" color="1,0,0" departPos = "300" route="connector1" departLane="random" />
<vehicle id="32" type="type1" depart="32" color="1,0,0" departPos = "320" route="circuit" departLane="random" />
<vehicle id="33" type="type1" depart="33" color="1,0,0" departPos = "320" route="connector1" departLane="random" />
<vehicle id="34" type="type1" depart="34" color="1,0,0" departPos = "340" route="circuit" departLane="random" />
<vehicle id="35" type="type1" depart="35" color="1,0,0" departPos = "340" route="connector1" departLane="random" />
<vehicle id="36" type="type1" depart="36" color="1,0,0" departPos = "360" route="circuit" departLane="random" />
<vehicle id="37" type="type1" depart="37" color="1,0,0" departPos = "360" route="connector1" departLane="random" />
<vehicle id="38" type="type1" depart="38" color="1,0,0" departPos = "380" route="circuit" departLane="random" />
<vehicle id="39" type="type1" depart="39" color="1,0,0" departPos = "380" route="connector1" departLane="random" />
<vehicle id="40" type="type1" depart="40" color="1,0,0" departPos = "400" route="circuit" departLane="random" />
<vehicle id="41" type="type1" depart="41" color="1,0,0" departPos = "400" route="connector1" departLane="random" />
<vehicle id="42" type="type1" depart="42" color="1,0,0" departPos = "420" route="circuit" departLane="random" />
<vehicle id="43" type="type1" depart="43" color="1,0,0" departPos = "420" route="connector1" departLane="random" />
<vehicle id="44" type="type1" depart="44" color="1,0,0" departPos = "440" route="circuit" departLane="random" />
<vehicle id="45" type="type1" depart="45" color="1,0,0" departPos = "440" route="connector1" departLane="random" />
<vehicle id="46" type="type1" depart="46" color="1,0,0" departPos = "460" route="circuit" departLane="random" />
<vehicle id="47" type="type1" depart="47" color="1,0,0" departPos = "460" route="connector1" departLane="random" />
<vehicle id="48" type="type1" depart="48" color="1,0,0" departPos = "480" route="circuit" departLane="random" />
<vehicle id="49" type="type1" depart="49" color="1,0,0" departPos = "480" route="connector1" departLane="random" />
<vehicle id="50" type="type1" depart="50" color="1,0,0" departPos = "500" route="circuit" departLane="random" />
<vehicle id="51" type="type1" depart="51" color="1,0,0" departPos = "500" route="connector1" departLane="random" />
<vehicle id="52" type="type1" depart="52" color="1,0,0" departPos = "520" route="circuit" departLane="random" />
<vehicle id="53" type="type1" depart="53" color="1,0,0" departPos = "520" route="connector1" departLane="random" />
<vehicle id="54" type="type1" depart="54" color="1,0,0" departPos = "540" route="circuit" departLane="random" />
<vehicle id="55" type="type1" depart="55" color="1,0,0" departPos = "540" route="connector1" departLane="random" />
<vehicle id="56" type="type1" depart="56" color="1,0,0" departPos = "560" route="circuit" departLane="random" />
<vehicle id="57" type="type1" depart="57" color="1,0,0" departPos = "560" route="connector1" departLane="random" />
<vehicle id="58" type="type1" depart="58" color="1,0,0" departPos = "580" route="circuit" departLane="random" />
<vehicle id="59" type="type1" depart="59" color="1,0,0" departPos = "580" route="connector1" departLane="random" />
<vehicle id="60" type="type1" depart="60" color="1,0,0" departPos = "600" route="circuit" departLane="random" />
<vehicle id="61" type="type1" depart="61" color="1,0,0" departPos = "600" route="connector1" departLane="random" />
<vehicle id="62" type="type1" depart="62" color="1,0,0" departPos = "620" route="circuit" departLane="random" />
<vehicle id="63" type="type1" depart="63" color="1,0,0" departPos = "620" route="connector1" departLane="random" />
<vehicle id="64" type="type1" depart="64" color="1,0,0" departPos = "640" route="circuit" departLane="random" />
<vehicle id="65" type="type1" depart="65" color="1,0,0" departPos = "640" route="connector1" departLane="random" />
<vehicle id="66" type="type1" depart="66" color="1,0,0" departPos = "660" route="circuit" departLane="random" />
<vehicle id="67" type="type1" depart="67" color="1,0,0" departPos = "660" route="connector1" departLane="random" />
<vehicle id="68" type="type1" depart="68" color="1,0,0" departPos = "680" route="circuit" departLane="random" />
<vehicle id="69" type="type1" depart="69" color="1,0,0" departPos = "680" route="connector1" departLane="random" />
<vehicle id="70" type="type1" depart="70" color="1,0,0" departPos = "700" route="circuit" departLane="random" />
<vehicle id="71" type="type1" depart="71" color="1,0,0" departPos = "700" route="connector1" departLane="random" />
<vehicle id="72" type="type1" depart="72" color="1,0,0" departPos = "720" route="circuit" departLane="random" />
<vehicle id="73" type="type1" depart="73" color="1,0,0" departPos = "720" route="connector1" departLane="random" />
<vehicle id="74" type="type1" depart="74" color="1,0,0" departPos = "740" route="circuit" departLane="random" />
<vehicle id="75" type="type1" depart="75" color="1,0,0" departPos = "740" route="connector1" departLane="random" />
<vehicle id="76" type="type1" depart="76" color="1,0,0" departPos = "760" route="circuit" departLane="random" />
<vehicle id="77" type="type1" depart="77" color="1,0,0" departPos = "760" route="connector1" departLane="random" />
<vehicle id="78" type="type1" depart="78" color="1,0,0" departPos = "780" route="circuit" departLane="random" />
<vehicle id="79" type="type1" depart="79" color="1,0,0" departPos = "780" route="connector1" departLane="random" />
<vehicle id="80" type="type1" depart="80" color="1,0,0" departPos = "800" route="circuit" departLane="random" />
<vehicle id="81" type="type1" depart="81" color="1,0,0" departPos = "800" route="connector1" departLane="random" />
<vehicle id="82" type="type1" depart="82" color="1,0,0" departPos = "820" route="circuit" departLane="random" />
<vehicle id="83" type="type1" depart="83" color="1,0,0" departPos = "820" route="connector1" departLane="random" />
<vehicle id="84" type="type1" depart="84" color="1,0,0" departPos = "840" route="circuit" departLane="random" />
<vehicle id="85" type="type1" depart="85" color="1,0,0" departPos = "840" route="connector1" departLane="random" />
<vehicle id="86" type="type1" depart="86" color="1,0,0" departPos = "860" route="circuit" departLane="random" />
<vehicle id="87" type="type1" depart="87" color="1,0,0" departPos = "860" route="connector1" departLane="random" />
<vehicle id="88" type="type1" depart="88" color="1,0,0" departPos = "880" route="circuit" departLane="random" />
<vehicle id="89" type="type1" depart="89" color="1,0,0" departPos = "880" route="connector1" departLane="random" />
<vehicle id="90" type="type1" depart="90" color="1,0,0" departPos = "900" route="circuit" departLane="random" />
<vehicle id="91" type="type1" depart="91" color="1,0,0" departPos = "900" route="connector1" departLane="random" />
<vehicle id="92" type="type1" depart="92" color="1,0,0" departPos = "920" route="circuit" departLane="random" />
<vehicle id="93" type="type1" depart="93" color="1,0,0" departPos = "920" route="connector1" departLane="random" />
<vehicle id="94" type="type1" depart="94" color="1,0,0" departPos = "940" route="circuit" departLane="random" />
<vehicle id="95" type="type1" depart="95" color="1,0,0" departPos = "940" route="connector1" departLane="random" />
<vehicle id="96" type="type1" depart="96" color="1,0,0" departPos = "960" route="circuit" departLane="random" />
<vehicle id="97" type="type1" depart="97" color="1,0,0" departPos = "960" route="connector1" departLane="random" />
<vehicle id="98" type="type1" depart="98" color="1,0,0" departPos = "980" route="circuit" departLane="random" />
<vehicle id="99" type="type1" depart="99" color="1,0,0" departPos = "980" route="connector1" departLane="random" />
<vehicle id="100" type="type1" depart="100" color="1,0,0" departPos = "1000" route="circuit" departLane="random" />
<vehicle id="101" type="type1" depart="101" color="1,0,0" departPos = "1000" route="connector1" departLane="random" />
<vehicle id="102" type="type1" depart="102" color="1,0,0" departPos = "1020" route="circuit" departLane="random" />
<vehicle id="103" type="type1" depart="103" color="1,0,0" departPos = "1020" route="connector1" departLane="random" />
<vehicle id="104" type="type1" depart="104" color="1,0,0" departPos = "1040" route="circuit" departLane="random" />
<vehicle id="105" type="type1" depart="105" color="1,0,0" departPos = "1040" route="connector1" departLane="random" />
<vehicle id="106" type="type1" depart="106" color="1,0,0" departPos = "1060" route="circuit" departLane="random" />
<vehicle id="107" type="type1" depart="107" color="1,0,0" departPos = "1060" route="connector1" departLane="random" />
<vehicle id="108" type="type1" depart="108" color="1,0,0" departPos = "1080" route="circuit" departLane="random" />
<vehicle id="109" type="type1" depart="109" color="1,0,0" departPos = "1080" route="connector1" departLane="random" />
<vehicle id="110" type="type1" depart="110" color="1,0,0" departPos = "1100" route="circuit" departLane="random" />
<vehicle id="111" type="type1" depart="111" color="1,0,0" departPos = "1100" route="connector1" departLane="random" />
<vehicle id="112" type="type1" depart="112" color="1,0,0" departPos = "1120" route="circuit" departLane="random" />
<vehicle id="113" type="type1" depart="113" color="1,0,0" departPos = "1120" route="connector1" departLane="random" />
<vehicle id="114" type="type1" depart="114" color="1,0,0" departPos = "1140" route="circuit" departLane="random" />
<vehicle id="115" type="type1" depart="115" color="1,0,0" departPos = "1140" route="connector1" departLane="random" />
<vehicle id="116" type="type1" depart="116" color="1,0,0" departPos = "1160" route="circuit" departLane="random" />
<vehicle id="117" type="type1" depart="117" color="1,0,0" departPos = "1160" route="connector1" departLane="random" />
<vehicle id="118" type="type1" depart="118" color="1,0,0" departPos = "1180" route="circuit" departLane="random" />
<vehicle id="119" type="type1" depart="119" color="1,0,0" departPos = "1180" route="connector1" departLane="random" />
<vehicle id="120" type="type1" depart="120" color="1,0,0" departPos = "1200" route="circuit" departLane="random" />
<vehicle id="121" type="type1" depart="121" color="1,0,0" departPos = "1200" route="connector1" departLane="random" />
<vehicle id="122" type="type1" depart="122" color="1,0,0" departPos = "1220" route="circuit" departLane="random" />
<vehicle id="123" type="type1" depart="123" color="1,0,0" departPos = "1220" route="connector1" departLane="random" />
<vehicle id="124" type="type1" depart="124" color="1,0,0" departPos = "1240" route="circuit" departLane="random" />
<vehicle id="125" type="type1" depart="125" color="1,0,0" departPos = "1240" route="connector1" departLane="random" />
<vehicle id="126" type="type1" depart="126" color="1,0,0" departPos = "1260" route="circuit" departLane="random" />
<vehicle id="127" type="type1" depart="127" color="1,0,0" departPos = "1260" route="connector1" departLane="random" />
<vehicle id="128" type="type1" depart="128" color="1,0,0" departPos = "1280" route="circuit" departLane="random" />
<vehicle id="129" type="type1" depart="129" color="1,0,0" departPos = "1280" route="connector1" departLane="random" />
<vehicle id="130" type="type1" depart="130" color="1,0,0" departPos = "1300" route="circuit" departLane="random" />
<vehicle id="131" type="type1" depart="131" color="1,0,0" departPos = "1300" route="connector1" departLane="random" />
<vehicle id="132" type="type1" depart="132" color="1,0,0" departPos = "1320" route="circuit" departLane="random" />
<vehicle id="133" type="type1" depart="133" color="1,0,0" departPos = "1320" route="connector1" departLane="random" />
<vehicle id="134" type="type1" depart="134" color="1,0,0" departPos = "1340" route="circuit" departLane="random" />
<vehicle id="135" type="type1" depart="135" color="1,0,0" departPos = "1340" route="connector1" departLane="random" />
<vehicle id="136" type="type1" depart="136" color="1,0,0" departPos = "1360" route="circuit" departLane="random" />
<vehicle id="137" type="type1" depart="137" color="1,0,0" departPos = "1360" route="connector1" departLane="random" />
<vehicle id="138" type="type1" depart="138" color="1,0,0" departPos = "1380" route="circuit" departLane="random" />
<vehicle id="139" type="type1" depart="139" color="1,0,0" departPos = "1380" route="connector1" departLane="random" />
<vehicle id="140" type="type1" depart="140" color="1,0,0" departPos = "1400" route="circuit" departLane="random" />
<vehicle id="141" type="type1" depart="141" color="1,0,0" departPos = "1400" route="connector1" departLane="random" />
<vehicle id="142" type="type1" depart="142" color="1,0,0" departPos = "1420" route="circuit" departLane="random" />
<vehicle id="143" type="type1" depart="143" color="1,0,0" departPos = "1420" route="connector1" departLane="random" />
<vehicle id="144" type="type1" depart="144" color="1,0,0" departPos = "1440" route="circuit" departLane="random" />
<vehicle id="145" type="type1" depart="145" color="1,0,0" departPos = "1440" route="connector1" departLane="random" />
<vehicle id="146" type="type1" depart="146" color="1,0,0" departPos = "1460" route="circuit" departLane="random" />
<vehicle id="147" type="type1" depart="147" color="1,0,0" departPos = "1460" route="connector1" departLane="random" />
<vehicle id="148" type="type1" depart="148" color="1,0,0" departPos = "1480" route="circuit" departLane="random" />
<vehicle id="149" type="type1" depart="149" color="1,0,0" departPos = "1480" route="connector1" departLane="random" />


</routes>
