<routes>
	<vType id="type1" accel="0.8" decel="4.5" sigma="0.5" length="5" maxSpeed="60"/>
	<vehicle id="0" type="type1" depart="1" color="1,0,0" departPos = "0" route="circuit" departLane="random" />
	<vehicle id="1" type="type1" depart="1" color="1,0,0" departPos = "0" route="connector1" departLane="random" />
	<vehicle id="2" type="type1" depart="2" color="1,0,0" departPos = "66" route="circuit" departLane="random" />
	<vehicle id="3" type="type1" depart="2" color="1,0,0" departPos = "66" route="connector1" departLane="random" />
	<vehicle id="4" type="type1" depart="3" color="1,0,0" departPos = "132" route="circuit" departLane="random" />
	<vehicle id="5" type="type1" depart="3" color="1,0,0" departPos = "132" route="connector1" departLane="random" />
	<vehicle id="6" type="type1" depart="4" color="1,0,0" departPos = "198" route="circuit" departLane="random" />
	<vehicle id="7" type="type1" depart="4" color="1,0,0" departPos = "198" route="connector1" departLane="random" />
	<vehicle id="8" type="type1" depart="5" color="1,0,0" departPos = "264" route="circuit" departLane="random" />
	<vehicle id="9" type="type1" depart="5" color="1,0,0" departPos = "264" route="connector1" departLane="random" />
	<vehicle id="10" type="type1" depart="6" color="1,0,0" departPos = "330" route="circuit" departLane="random" />
	<vehicle id="11" type="type1" depart="6" color="1,0,0" departPos = "330" route="connector1" departLane="random" />
	<vehicle id="12" type="type1" depart="7" color="1,0,0" departPos = "396" route="circuit" departLane="random" />
	<vehicle id="13" type="type1" depart="7" color="1,0,0" departPos = "396" route="connector1" departLane="random" />
	<vehicle id="14" type="type1" depart="8" color="1,0,0" departPos = "462" route="circuit" departLane="random" />
	<vehicle id="15" type="type1" depart="8" color="1,0,0" departPos = "462" route="connector1" departLane="random" />
	<vehicle id="16" type="type1" depart="9" color="1,0,0" departPos = "528" route="circuit" departLane="random" />
	<vehicle id="17" type="type1" depart="9" color="1,0,0" departPos = "528" route="connector1" departLane="random" />
	<vehicle id="18" type="type1" depart="10" color="1,0,0" departPos = "594" route="circuit" departLane="random" />
	<vehicle id="19" type="type1" depart="10" color="1,0,0" departPos = "594" route="connector1" departLane="random" />
	<vehicle id="20" type="type1" depart="11" color="1,0,0" departPos = "660" route="circuit" departLane="random" />
	<vehicle id="21" type="type1" depart="11" color="1,0,0" departPos = "660" route="connector1" departLane="random" />
	<vehicle id="22" type="type1" depart="12" color="1,0,0" departPos = "726" route="circuit" departLane="random" />
	<vehicle id="23" type="type1" depart="12" color="1,0,0" departPos = "726" route="connector1" departLane="random" />
	<vehicle id="24" type="type1" depart="13" color="1,0,0" departPos = "792" route="circuit" departLane="random" />
	<vehicle id="25" type="type1" depart="13" color="1,0,0" departPos = "792" route="connector1" departLane="random" />
	<vehicle id="26" type="type1" depart="14" color="1,0,0" departPos = "858" route="circuit" departLane="random" />
	<vehicle id="27" type="type1" depart="14" color="1,0,0" departPos = "858" route="connector1" departLane="random" />
	<vehicle id="28" type="type1" depart="15" color="1,0,0" departPos = "924" route="circuit" departLane="random" />
	<vehicle id="29" type="type1" depart="15" color="1,0,0" departPos = "924" route="connector1" departLane="random" />
	<vehicle id="30" type="type1" depart="16" color="1,0,0" departPos = "990" route="circuit" departLane="random" />
	<vehicle id="31" type="type1" depart="16" color="1,0,0" departPos = "990" route="connector1" departLane="random" />
	<vehicle id="32" type="type1" depart="17" color="1,0,0" departPos = "1056" route="circuit" departLane="random" />
	<vehicle id="33" type="type1" depart="17" color="1,0,0" departPos = "1056" route="connector1" departLane="random" />
	<vehicle id="34" type="type1" depart="18" color="1,0,0" departPos = "1122" route="circuit" departLane="random" />
	<vehicle id="35" type="type1" depart="18" color="1,0,0" departPos = "1122" route="connector1" departLane="random" />
	<vehicle id="36" type="type1" depart="19" color="1,0,0" departPos = "1188" route="circuit" departLane="random" />
	<vehicle id="37" type="type1" depart="19" color="1,0,0" departPos = "1188" route="connector1" departLane="random" />
	<vehicle id="38" type="type1" depart="20" color="1,0,0" departPos = "1254" route="circuit" departLane="random" />
	<vehicle id="39" type="type1" depart="20" color="1,0,0" departPos = "1254" route="connector1" departLane="random" />
	<vehicle id="40" type="type1" depart="21" color="1,0,0" departPos = "1320" route="circuit" departLane="random" />
	<vehicle id="41" type="type1" depart="21" color="1,0,0" departPos = "1320" route="connector1" departLane="random" />
	<vehicle id="42" type="type1" depart="22" color="1,0,0" departPos = "1386" route="circuit" departLane="random" />
	<vehicle id="43" type="type1" depart="22" color="1,0,0" departPos = "1386" route="connector1" departLane="random" />
	<vehicle id="44" type="type1" depart="23" color="1,0,0" departPos = "1452" route="circuit" departLane="random" />
	<vehicle id="45" type="type1" depart="23" color="1,0,0" departPos = "1452" route="connector1" departLane="random" />
	<vehicle id="46" type="type1" depart="24" color="1,0,0" departPos = "1518" route="circuit" departLane="random" />
	<vehicle id="47" type="type1" depart="24" color="1,0,0" departPos = "1518" route="connector1" departLane="random" />
	<vehicle id="48" type="type1" depart="25" color="1,0,0" departPos = "1584" route="circuit" departLane="random" />
	<vehicle id="49" type="type1" depart="25" color="1,0,0" departPos = "1584" route="connector1" departLane="random" />
	<vehicle id="50" type="type1" depart="26" color="1,0,0" departPos = "1650" route="circuit" departLane="random" />
	<vehicle id="51" type="type1" depart="26" color="1,0,0" departPos = "1650" route="connector1" departLane="random" />
	<vehicle id="52" type="type1" depart="27" color="1,0,0" departPos = "1716" route="circuit" departLane="random" />
	<vehicle id="53" type="type1" depart="27" color="1,0,0" departPos = "1716" route="connector1" departLane="random" />
	<vehicle id="54" type="type1" depart="28" color="1,0,0" departPos = "1782" route="circuit" departLane="random" />
	<vehicle id="55" type="type1" depart="28" color="1,0,0" departPos = "1782" route="connector1" departLane="random" />
	<vehicle id="56" type="type1" depart="29" color="1,0,0" departPos = "1848" route="circuit" departLane="random" />
	<vehicle id="57" type="type1" depart="29" color="1,0,0" departPos = "1848" route="connector1" departLane="random" />
	<vehicle id="58" type="type1" depart="30" color="1,0,0" departPos = "1914" route="circuit" departLane="random" />
	<vehicle id="59" type="type1" depart="30" color="1,0,0" departPos = "1914" route="connector1" departLane="random" />
	<vehicle id="60" type="type1" depart="31" color="1,0,0" departPos = "1980" route="circuit" departLane="random" />
	<vehicle id="61" type="type1" depart="31" color="1,0,0" departPos = "1980" route="connector1" departLane="random" />
	<vehicle id="62" type="type1" depart="32" color="1,0,0" departPos = "2046" route="circuit" departLane="random" />
	<vehicle id="63" type="type1" depart="32" color="1,0,0" departPos = "2046" route="connector1" departLane="random" />
	<vehicle id="64" type="type1" depart="33" color="1,0,0" departPos = "2112" route="circuit" departLane="random" />
	<vehicle id="65" type="type1" depart="33" color="1,0,0" departPos = "2112" route="connector1" departLane="random" />
	<vehicle id="66" type="type1" depart="34" color="1,0,0" departPos = "2178" route="circuit" departLane="random" />
	<vehicle id="67" type="type1" depart="34" color="1,0,0" departPos = "2178" route="connector1" departLane="random" />
	<vehicle id="68" type="type1" depart="35" color="1,0,0" departPos = "2244" route="circuit" departLane="random" />
	<vehicle id="69" type="type1" depart="35" color="1,0,0" departPos = "2244" route="connector1" departLane="random" />
	<vehicle id="70" type="type1" depart="36" color="1,0,0" departPos = "2310" route="circuit" departLane="random" />
	<vehicle id="71" type="type1" depart="36" color="1,0,0" departPos = "2310" route="connector1" departLane="random" />
	<vehicle id="72" type="type1" depart="37" color="1,0,0" departPos = "2376" route="circuit" departLane="random" />
	<vehicle id="73" type="type1" depart="37" color="1,0,0" departPos = "2376" route="connector1" departLane="random" />
	<vehicle id="74" type="type1" depart="38" color="1,0,0" departPos = "2442" route="circuit" departLane="random" />
	<vehicle id="75" type="type1" depart="38" color="1,0,0" departPos = "2442" route="connector1" departLane="random" />
	<vehicle id="76" type="type1" depart="39" color="1,0,0" departPos = "2508" route="circuit" departLane="random" />
	<vehicle id="77" type="type1" depart="39" color="1,0,0" departPos = "2508" route="connector1" departLane="random" />
	<vehicle id="78" type="type1" depart="40" color="1,0,0" departPos = "2574" route="circuit" departLane="random" />
	<vehicle id="79" type="type1" depart="40" color="1,0,0" departPos = "2574" route="connector1" departLane="random" />
	<vehicle id="80" type="type1" depart="41" color="1,0,0" departPos = "2640" route="circuit" departLane="random" />
	<vehicle id="81" type="type1" depart="41" color="1,0,0" departPos = "2640" route="connector1" departLane="random" />
	<vehicle id="82" type="type1" depart="42" color="1,0,0" departPos = "2706" route="circuit" departLane="random" />
	<vehicle id="83" type="type1" depart="42" color="1,0,0" departPos = "2706" route="connector1" departLane="random" />
	<vehicle id="84" type="type1" depart="43" color="1,0,0" departPos = "2772" route="circuit" departLane="random" />
	<vehicle id="85" type="type1" depart="43" color="1,0,0" departPos = "2772" route="connector1" departLane="random" />
	<vehicle id="86" type="type1" depart="44" color="1,0,0" departPos = "2838" route="circuit" departLane="random" />
	<vehicle id="87" type="type1" depart="44" color="1,0,0" departPos = "2838" route="connector1" departLane="random" />
	<vehicle id="88" type="type1" depart="45" color="1,0,0" departPos = "2904" route="circuit" departLane="random" />
	<vehicle id="89" type="type1" depart="45" color="1,0,0" departPos = "2904" route="connector1" departLane="random" />
	<vehicle id="90" type="type1" depart="46" color="1,0,0" departPos = "2970" route="circuit" departLane="random" />
	<vehicle id="91" type="type1" depart="46" color="1,0,0" departPos = "2970" route="connector1" departLane="random" />
	<vehicle id="92" type="type1" depart="47" color="1,0,0" departPos = "3036" route="circuit" departLane="random" />
	<vehicle id="93" type="type1" depart="47" color="1,0,0" departPos = "3036" route="connector1" departLane="random" />
	<vehicle id="94" type="type1" depart="48" color="1,0,0" departPos = "3102" route="circuit" departLane="random" />
	<vehicle id="95" type="type1" depart="48" color="1,0,0" departPos = "3102" route="connector1" departLane="random" />
	<vehicle id="96" type="type1" depart="49" color="1,0,0" departPos = "3168" route="circuit" departLane="random" />
	<vehicle id="97" type="type1" depart="49" color="1,0,0" departPos = "3168" route="connector1" departLane="random" />
	<vehicle id="98" type="type1" depart="50" color="1,0,0" departPos = "3234" route="circuit" departLane="random" />
	<vehicle id="99" type="type1" depart="50" color="1,0,0" departPos = "3234" route="connector1" departLane="random" />
	<vehicle id="100" type="type1" depart="51" color="1,0,0" departPos = "3300" route="circuit" departLane="random" />
	<vehicle id="101" type="type1" depart="51" color="1,0,0" departPos = "3300" route="connector1" departLane="random" />
	<vehicle id="102" type="type1" depart="52" color="1,0,0" departPos = "3366" route="circuit" departLane="random" />
	<vehicle id="103" type="type1" depart="52" color="1,0,0" departPos = "3366" route="connector1" departLane="random" />
	<vehicle id="104" type="type1" depart="53" color="1,0,0" departPos = "3432" route="circuit" departLane="random" />
	<vehicle id="105" type="type1" depart="53" color="1,0,0" departPos = "3432" route="connector1" departLane="random" />
	<vehicle id="106" type="type1" depart="54" color="1,0,0" departPos = "3498" route="circuit" departLane="random" />
	<vehicle id="107" type="type1" depart="54" color="1,0,0" departPos = "3498" route="connector1" departLane="random" />
	<vehicle id="108" type="type1" depart="55" color="1,0,0" departPos = "3564" route="circuit" departLane="random" />
	<vehicle id="109" type="type1" depart="55" color="1,0,0" departPos = "3564" route="connector1" departLane="random" />
	<vehicle id="110" type="type1" depart="56" color="1,0,0" departPos = "3630" route="circuit" departLane="random" />
	<vehicle id="111" type="type1" depart="56" color="1,0,0" departPos = "3630" route="connector1" departLane="random" />
	<vehicle id="112" type="type1" depart="57" color="1,0,0" departPos = "3696" route="circuit" departLane="random" />
	<vehicle id="113" type="type1" depart="57" color="1,0,0" departPos = "3696" route="connector1" departLane="random" />
	<vehicle id="114" type="type1" depart="58" color="1,0,0" departPos = "3762" route="circuit" departLane="random" />
	<vehicle id="115" type="type1" depart="58" color="1,0,0" departPos = "3762" route="connector1" departLane="random" />
	<vehicle id="116" type="type1" depart="59" color="1,0,0" departPos = "3828" route="circuit" departLane="random" />
	<vehicle id="117" type="type1" depart="59" color="1,0,0" departPos = "3828" route="connector1" departLane="random" />
	<vehicle id="118" type="type1" depart="60" color="1,0,0" departPos = "3894" route="circuit" departLane="random" />
	<vehicle id="119" type="type1" depart="60" color="1,0,0" departPos = "3894" route="connector1" departLane="random" />
	<vehicle id="120" type="type1" depart="61" color="1,0,0" departPos = "3960" route="circuit" departLane="random" />
	<vehicle id="121" type="type1" depart="61" color="1,0,0" departPos = "3960" route="connector1" departLane="random" />
	<vehicle id="122" type="type1" depart="62" color="1,0,0" departPos = "4026" route="circuit" departLane="random" />
	<vehicle id="123" type="type1" depart="62" color="1,0,0" departPos = "4026" route="connector1" departLane="random" />
	<vehicle id="124" type="type1" depart="63" color="1,0,0" departPos = "4092" route="circuit" departLane="random" />
	<vehicle id="125" type="type1" depart="63" color="1,0,0" departPos = "4092" route="connector1" departLane="random" />
	<vehicle id="126" type="type1" depart="64" color="1,0,0" departPos = "4158" route="circuit" departLane="random" />
	<vehicle id="127" type="type1" depart="64" color="1,0,0" departPos = "4158" route="connector1" departLane="random" />
	<vehicle id="128" type="type1" depart="65" color="1,0,0" departPos = "4224" route="circuit" departLane="random" />
	<vehicle id="129" type="type1" depart="65" color="1,0,0" departPos = "4224" route="connector1" departLane="random" />
	<vehicle id="130" type="type1" depart="66" color="1,0,0" departPos = "4290" route="circuit" departLane="random" />
	<vehicle id="131" type="type1" depart="66" color="1,0,0" departPos = "4290" route="connector1" departLane="random" />
	<vehicle id="132" type="type1" depart="67" color="1,0,0" departPos = "4356" route="circuit" departLane="random" />
	<vehicle id="133" type="type1" depart="67" color="1,0,0" departPos = "4356" route="connector1" departLane="random" />
	<vehicle id="134" type="type1" depart="68" color="1,0,0" departPos = "4422" route="circuit" departLane="random" />
	<vehicle id="135" type="type1" depart="68" color="1,0,0" departPos = "4422" route="connector1" departLane="random" />
	<vehicle id="136" type="type1" depart="69" color="1,0,0" departPos = "4488" route="circuit" departLane="random" />
	<vehicle id="137" type="type1" depart="69" color="1,0,0" departPos = "4488" route="connector1" departLane="random" />
	<vehicle id="138" type="type1" depart="70" color="1,0,0" departPos = "4554" route="circuit" departLane="random" />
	<vehicle id="139" type="type1" depart="70" color="1,0,0" departPos = "4554" route="connector1" departLane="random" />
	<vehicle id="140" type="type1" depart="71" color="1,0,0" departPos = "4620" route="circuit" departLane="random" />
	<vehicle id="141" type="type1" depart="71" color="1,0,0" departPos = "4620" route="connector1" departLane="random" />
	<vehicle id="142" type="type1" depart="72" color="1,0,0" departPos = "4686" route="circuit" departLane="random" />
	<vehicle id="143" type="type1" depart="72" color="1,0,0" departPos = "4686" route="connector1" departLane="random" />
	<vehicle id="144" type="type1" depart="73" color="1,0,0" departPos = "4752" route="circuit" departLane="random" />
	<vehicle id="145" type="type1" depart="73" color="1,0,0" departPos = "4752" route="connector1" departLane="random" />
	<vehicle id="146" type="type1" depart="74" color="1,0,0" departPos = "4818" route="circuit" departLane="random" />
	<vehicle id="147" type="type1" depart="74" color="1,0,0" departPos = "4818" route="connector1" departLane="random" />
	<vehicle id="148" type="type1" depart="75" color="1,0,0" departPos = "4884" route="circuit" departLane="random" />
	<vehicle id="149" type="type1" depart="75" color="1,0,0" departPos = "4884" route="connector1" departLane="random" />
</routes>
