<nodes>
	<node id = "1" x="-2500" y="500"/>
	<node id = "2" x="2500" y="500"/>
	<node id = "4" x="-2500" y="501"/>
	<node id = "3" x="2500" y="501"/>
</nodes>
